<?xml version="1.0" encoding="UTF-8"?>

<!-- generated on Sat Apr 27 15:09:55 2019 by SUMO netconvert Version 0.32.0
<?xml version="1.0" encoding="UTF-8"?>

<configuration xmlns:xsi="http://www.w3.org/2001/XMLSchema-instance" xsi:noNamespaceSchemaLocation="http://sumo.dlr.de/xsd/netconvertConfiguration.xsd">

    <input>
        <node-files value="node_file.nod.xml"/>
        <edge-files value="edge_file.xml"/>
        <type-files value="type_file.typ.xml"/>
    </input>

    <output>
        <output-file value="net_file.net.xml"/>
    </output>

</configuration>
-->

<net version="0.27" xmlns:xsi="http://www.w3.org/2001/XMLSchema-instance" xsi:noNamespaceSchemaLocation="http://sumo.dlr.de/xsd/net_file.xsd">

    <location netOffset="0.00,0.00" convBoundary="0.00,0.00,300.00,300.00" origBoundary="0.00,0.00,300.00,300.00" projParameter="!"/>

    <type id="3L" numLanes="3"/>

    <edge id=":n1_0" function="internal">
        <lane id=":n1_0_0" index="0" speed="13.90" length="4.82" shape="101.65,300.00 100.82,301.24 100.00,301.65 99.17,301.24 98.35,300.00"/>
    </edge>
    <edge id=":n10_0" function="internal">
        <lane id=":n10_0_0" index="0" speed="13.90" length="4.82" shape="0.00,101.65 -1.24,100.82 -1.65,100.00 -1.24,99.17 0.00,98.35"/>
    </edge>
    <edge id=":n11_0" function="internal">
        <lane id=":n11_0_0" index="0" speed="13.90" length="4.82" shape="300.00,198.35 301.24,199.17 301.65,200.00 301.24,200.82 300.00,201.65"/>
    </edge>
    <edge id=":n12_0" function="internal">
        <lane id=":n12_0_0" index="0" speed="13.90" length="4.82" shape="300.00,98.35 301.24,99.18 301.65,100.00 301.24,100.83 300.00,101.65"/>
    </edge>
    <edge id=":n2_0" function="internal">
        <lane id=":n2_0_0" index="0" speed="13.90" length="4.82" shape="201.65,300.00 200.83,301.24 200.00,301.65 199.18,301.24 198.35,300.00"/>
    </edge>
    <edge id=":n3_0" function="internal">
        <lane id=":n3_0_0" index="0" speed="13.90" length="5.00" shape="91.75,211.35 91.56,209.99 90.97,209.03 90.01,208.44 88.65,208.25"/>
    </edge>
    <edge id=":n3_1" function="internal">
        <lane id=":n3_1_0" index="0" speed="13.90" length="22.70" shape="91.75,211.35 91.75,188.65"/>
        <lane id=":n3_1_1" index="1" speed="13.90" length="22.70" shape="95.05,211.35 95.05,188.65"/>
        <lane id=":n3_1_2" index="2" speed="13.90" length="22.70" shape="98.35,211.35 98.35,188.65"/>
    </edge>
    <edge id=":n3_4" function="internal">
        <lane id=":n3_4_0" index="0" speed="13.90" length="7.47" shape="98.35,211.35 99.16,205.66 100.05,204.18"/>
    </edge>
    <edge id=":n3_5" function="internal">
        <lane id=":n3_5_0" index="0" speed="13.90" length="2.41" shape="98.35,211.35 99.18,210.11 100.00,209.70"/>
    </edge>
    <edge id=":n3_24" function="internal">
        <lane id=":n3_24_0" index="0" speed="13.90" length="13.50" shape="100.05,204.18 101.60,201.60 105.66,199.16 111.35,198.35"/>
    </edge>
    <edge id=":n3_25" function="internal">
        <lane id=":n3_25_0" index="0" speed="13.90" length="2.41" shape="100.00,209.70 100.83,210.11 101.65,211.35"/>
    </edge>
    <edge id=":n3_6" function="internal">
        <lane id=":n3_6_0" index="0" speed="13.90" length="5.00" shape="111.35,208.25 109.99,208.44 109.03,209.03 108.44,209.99 108.25,211.35"/>
    </edge>
    <edge id=":n3_7" function="internal">
        <lane id=":n3_7_0" index="0" speed="13.90" length="22.70" shape="111.35,208.25 88.65,208.25"/>
        <lane id=":n3_7_1" index="1" speed="13.90" length="22.70" shape="111.35,204.95 88.65,204.95"/>
        <lane id=":n3_7_2" index="2" speed="13.90" length="22.70" shape="111.35,201.65 88.65,201.65"/>
    </edge>
    <edge id=":n3_10" function="internal">
        <lane id=":n3_10_0" index="0" speed="13.90" length="7.47" shape="111.35,201.65 105.66,200.84 104.18,199.95"/>
    </edge>
    <edge id=":n3_11" function="internal">
        <lane id=":n3_11_0" index="0" speed="13.90" length="2.41" shape="111.35,201.65 110.11,200.83 109.70,200.00"/>
    </edge>
    <edge id=":n3_26" function="internal">
        <lane id=":n3_26_0" index="0" speed="13.90" length="13.50" shape="104.18,199.95 101.60,198.40 99.16,194.34 98.35,188.65"/>
    </edge>
    <edge id=":n3_27" function="internal">
        <lane id=":n3_27_0" index="0" speed="13.90" length="2.41" shape="109.70,200.00 110.11,199.18 111.35,198.35"/>
    </edge>
    <edge id=":n3_12" function="internal">
        <lane id=":n3_12_0" index="0" speed="13.90" length="5.00" shape="108.25,188.65 108.44,190.01 109.03,190.97 109.99,191.56 111.35,191.75"/>
    </edge>
    <edge id=":n3_13" function="internal">
        <lane id=":n3_13_0" index="0" speed="13.90" length="22.70" shape="108.25,188.65 108.25,211.35"/>
        <lane id=":n3_13_1" index="1" speed="13.90" length="22.70" shape="104.95,188.65 104.95,211.35"/>
        <lane id=":n3_13_2" index="2" speed="13.90" length="22.70" shape="101.65,188.65 101.65,211.35"/>
    </edge>
    <edge id=":n3_16" function="internal">
        <lane id=":n3_16_0" index="0" speed="13.90" length="7.47" shape="101.65,188.65 100.84,194.34 99.95,195.82"/>
    </edge>
    <edge id=":n3_17" function="internal">
        <lane id=":n3_17_0" index="0" speed="13.90" length="2.41" shape="101.65,188.65 100.82,189.89 100.00,190.30"/>
    </edge>
    <edge id=":n3_28" function="internal">
        <lane id=":n3_28_0" index="0" speed="13.90" length="13.50" shape="99.95,195.82 98.40,198.40 94.34,200.84 88.65,201.65"/>
    </edge>
    <edge id=":n3_29" function="internal">
        <lane id=":n3_29_0" index="0" speed="13.90" length="2.41" shape="100.00,190.30 99.17,189.89 98.35,188.65"/>
    </edge>
    <edge id=":n3_18" function="internal">
        <lane id=":n3_18_0" index="0" speed="13.90" length="5.00" shape="88.65,191.75 90.01,191.56 90.97,190.97 91.56,190.01 91.75,188.65"/>
    </edge>
    <edge id=":n3_19" function="internal">
        <lane id=":n3_19_0" index="0" speed="13.90" length="22.70" shape="88.65,191.75 111.35,191.75"/>
        <lane id=":n3_19_1" index="1" speed="13.90" length="22.70" shape="88.65,195.05 111.35,195.05"/>
        <lane id=":n3_19_2" index="2" speed="13.90" length="22.70" shape="88.65,198.35 111.35,198.35"/>
    </edge>
    <edge id=":n3_22" function="internal">
        <lane id=":n3_22_0" index="0" speed="13.90" length="7.47" shape="88.65,198.35 94.34,199.16 95.82,200.05"/>
    </edge>
    <edge id=":n3_23" function="internal">
        <lane id=":n3_23_0" index="0" speed="13.90" length="2.41" shape="88.65,198.35 89.89,199.17 90.30,200.00"/>
    </edge>
    <edge id=":n3_30" function="internal">
        <lane id=":n3_30_0" index="0" speed="13.90" length="13.50" shape="95.82,200.05 98.40,201.60 100.84,205.66 101.65,211.35"/>
    </edge>
    <edge id=":n3_31" function="internal">
        <lane id=":n3_31_0" index="0" speed="13.90" length="2.41" shape="90.30,200.00 89.89,200.82 88.65,201.65"/>
    </edge>
    <edge id=":n4_0" function="internal">
        <lane id=":n4_0_0" index="0" speed="13.90" length="5.00" shape="191.75,211.35 191.56,209.99 190.97,209.03 190.01,208.44 188.65,208.25"/>
    </edge>
    <edge id=":n4_1" function="internal">
        <lane id=":n4_1_0" index="0" speed="13.90" length="22.70" shape="191.75,211.35 191.75,188.65"/>
        <lane id=":n4_1_1" index="1" speed="13.90" length="22.70" shape="195.05,211.35 195.05,188.65"/>
        <lane id=":n4_1_2" index="2" speed="13.90" length="22.70" shape="198.35,211.35 198.35,188.65"/>
    </edge>
    <edge id=":n4_4" function="internal">
        <lane id=":n4_4_0" index="0" speed="13.90" length="7.47" shape="198.35,211.35 199.16,205.66 200.05,204.18"/>
    </edge>
    <edge id=":n4_5" function="internal">
        <lane id=":n4_5_0" index="0" speed="13.90" length="2.41" shape="198.35,211.35 199.17,210.11 200.00,209.70"/>
    </edge>
    <edge id=":n4_24" function="internal">
        <lane id=":n4_24_0" index="0" speed="13.90" length="13.50" shape="200.05,204.18 201.60,201.60 205.66,199.16 211.35,198.35"/>
    </edge>
    <edge id=":n4_25" function="internal">
        <lane id=":n4_25_0" index="0" speed="13.90" length="2.41" shape="200.00,209.70 200.82,210.11 201.65,211.35"/>
    </edge>
    <edge id=":n4_6" function="internal">
        <lane id=":n4_6_0" index="0" speed="13.90" length="5.00" shape="211.35,208.25 209.99,208.44 209.03,209.03 208.44,209.99 208.25,211.35"/>
    </edge>
    <edge id=":n4_7" function="internal">
        <lane id=":n4_7_0" index="0" speed="13.90" length="22.70" shape="211.35,208.25 188.65,208.25"/>
        <lane id=":n4_7_1" index="1" speed="13.90" length="22.70" shape="211.35,204.95 188.65,204.95"/>
        <lane id=":n4_7_2" index="2" speed="13.90" length="22.70" shape="211.35,201.65 188.65,201.65"/>
    </edge>
    <edge id=":n4_10" function="internal">
        <lane id=":n4_10_0" index="0" speed="13.90" length="7.47" shape="211.35,201.65 205.66,200.84 204.18,199.95"/>
    </edge>
    <edge id=":n4_11" function="internal">
        <lane id=":n4_11_0" index="0" speed="13.90" length="2.41" shape="211.35,201.65 210.11,200.83 209.70,200.00"/>
    </edge>
    <edge id=":n4_26" function="internal">
        <lane id=":n4_26_0" index="0" speed="13.90" length="13.50" shape="204.18,199.95 201.60,198.40 199.16,194.34 198.35,188.65"/>
    </edge>
    <edge id=":n4_27" function="internal">
        <lane id=":n4_27_0" index="0" speed="13.90" length="2.41" shape="209.70,200.00 210.11,199.18 211.35,198.35"/>
    </edge>
    <edge id=":n4_12" function="internal">
        <lane id=":n4_12_0" index="0" speed="13.90" length="5.00" shape="208.25,188.65 208.44,190.01 209.03,190.97 209.99,191.56 211.35,191.75"/>
    </edge>
    <edge id=":n4_13" function="internal">
        <lane id=":n4_13_0" index="0" speed="13.90" length="22.70" shape="208.25,188.65 208.25,211.35"/>
        <lane id=":n4_13_1" index="1" speed="13.90" length="22.70" shape="204.95,188.65 204.95,211.35"/>
        <lane id=":n4_13_2" index="2" speed="13.90" length="22.70" shape="201.65,188.65 201.65,211.35"/>
    </edge>
    <edge id=":n4_16" function="internal">
        <lane id=":n4_16_0" index="0" speed="13.90" length="7.47" shape="201.65,188.65 200.84,194.34 199.95,195.82"/>
    </edge>
    <edge id=":n4_17" function="internal">
        <lane id=":n4_17_0" index="0" speed="13.90" length="2.41" shape="201.65,188.65 200.83,189.89 200.00,190.30"/>
    </edge>
    <edge id=":n4_28" function="internal">
        <lane id=":n4_28_0" index="0" speed="13.90" length="13.50" shape="199.95,195.82 198.40,198.40 194.34,200.84 188.65,201.65"/>
    </edge>
    <edge id=":n4_29" function="internal">
        <lane id=":n4_29_0" index="0" speed="13.90" length="2.41" shape="200.00,190.30 199.18,189.89 198.35,188.65"/>
    </edge>
    <edge id=":n4_18" function="internal">
        <lane id=":n4_18_0" index="0" speed="13.90" length="5.00" shape="188.65,191.75 190.01,191.56 190.97,190.97 191.56,190.01 191.75,188.65"/>
    </edge>
    <edge id=":n4_19" function="internal">
        <lane id=":n4_19_0" index="0" speed="13.90" length="22.70" shape="188.65,191.75 211.35,191.75"/>
        <lane id=":n4_19_1" index="1" speed="13.90" length="22.70" shape="188.65,195.05 211.35,195.05"/>
        <lane id=":n4_19_2" index="2" speed="13.90" length="22.70" shape="188.65,198.35 211.35,198.35"/>
    </edge>
    <edge id=":n4_22" function="internal">
        <lane id=":n4_22_0" index="0" speed="13.90" length="7.47" shape="188.65,198.35 194.34,199.16 195.82,200.05"/>
    </edge>
    <edge id=":n4_23" function="internal">
        <lane id=":n4_23_0" index="0" speed="13.90" length="2.41" shape="188.65,198.35 189.89,199.17 190.30,200.00"/>
    </edge>
    <edge id=":n4_30" function="internal">
        <lane id=":n4_30_0" index="0" speed="13.90" length="13.50" shape="195.82,200.05 198.40,201.60 200.84,205.66 201.65,211.35"/>
    </edge>
    <edge id=":n4_31" function="internal">
        <lane id=":n4_31_0" index="0" speed="13.90" length="2.41" shape="190.30,200.00 189.89,200.82 188.65,201.65"/>
    </edge>
    <edge id=":n5_0" function="internal">
        <lane id=":n5_0_0" index="0" speed="13.90" length="5.00" shape="91.75,111.35 91.56,109.99 90.97,109.03 90.01,108.44 88.65,108.25"/>
    </edge>
    <edge id=":n5_1" function="internal">
        <lane id=":n5_1_0" index="0" speed="13.90" length="22.70" shape="91.75,111.35 91.75,88.65"/>
        <lane id=":n5_1_1" index="1" speed="13.90" length="22.70" shape="95.05,111.35 95.05,88.65"/>
        <lane id=":n5_1_2" index="2" speed="13.90" length="22.70" shape="98.35,111.35 98.35,88.65"/>
    </edge>
    <edge id=":n5_4" function="internal">
        <lane id=":n5_4_0" index="0" speed="13.90" length="7.47" shape="98.35,111.35 99.16,105.66 100.05,104.18"/>
    </edge>
    <edge id=":n5_5" function="internal">
        <lane id=":n5_5_0" index="0" speed="13.90" length="2.41" shape="98.35,111.35 99.18,110.11 100.00,109.70"/>
    </edge>
    <edge id=":n5_24" function="internal">
        <lane id=":n5_24_0" index="0" speed="13.90" length="13.50" shape="100.05,104.18 101.60,101.60 105.66,99.16 111.35,98.35"/>
    </edge>
    <edge id=":n5_25" function="internal">
        <lane id=":n5_25_0" index="0" speed="13.90" length="2.41" shape="100.00,109.70 100.83,110.11 101.65,111.35"/>
    </edge>
    <edge id=":n5_6" function="internal">
        <lane id=":n5_6_0" index="0" speed="13.90" length="5.00" shape="111.35,108.25 109.99,108.44 109.03,109.03 108.44,109.99 108.25,111.35"/>
    </edge>
    <edge id=":n5_7" function="internal">
        <lane id=":n5_7_0" index="0" speed="13.90" length="22.70" shape="111.35,108.25 88.65,108.25"/>
        <lane id=":n5_7_1" index="1" speed="13.90" length="22.70" shape="111.35,104.95 88.65,104.95"/>
        <lane id=":n5_7_2" index="2" speed="13.90" length="22.70" shape="111.35,101.65 88.65,101.65"/>
    </edge>
    <edge id=":n5_10" function="internal">
        <lane id=":n5_10_0" index="0" speed="13.90" length="7.47" shape="111.35,101.65 105.66,100.84 104.18,99.95"/>
    </edge>
    <edge id=":n5_11" function="internal">
        <lane id=":n5_11_0" index="0" speed="13.90" length="2.41" shape="111.35,101.65 110.11,100.82 109.70,100.00"/>
    </edge>
    <edge id=":n5_26" function="internal">
        <lane id=":n5_26_0" index="0" speed="13.90" length="13.50" shape="104.18,99.95 101.60,98.40 99.16,94.34 98.35,88.65"/>
    </edge>
    <edge id=":n5_27" function="internal">
        <lane id=":n5_27_0" index="0" speed="13.90" length="2.41" shape="109.70,100.00 110.11,99.17 111.35,98.35"/>
    </edge>
    <edge id=":n5_12" function="internal">
        <lane id=":n5_12_0" index="0" speed="13.90" length="5.00" shape="108.25,88.65 108.44,90.01 109.03,90.97 109.99,91.56 111.35,91.75"/>
    </edge>
    <edge id=":n5_13" function="internal">
        <lane id=":n5_13_0" index="0" speed="13.90" length="22.70" shape="108.25,88.65 108.25,111.35"/>
        <lane id=":n5_13_1" index="1" speed="13.90" length="22.70" shape="104.95,88.65 104.95,111.35"/>
        <lane id=":n5_13_2" index="2" speed="13.90" length="22.70" shape="101.65,88.65 101.65,111.35"/>
    </edge>
    <edge id=":n5_16" function="internal">
        <lane id=":n5_16_0" index="0" speed="13.90" length="7.47" shape="101.65,88.65 100.84,94.34 99.95,95.82"/>
    </edge>
    <edge id=":n5_17" function="internal">
        <lane id=":n5_17_0" index="0" speed="13.90" length="2.41" shape="101.65,88.65 100.82,89.89 100.00,90.30"/>
    </edge>
    <edge id=":n5_28" function="internal">
        <lane id=":n5_28_0" index="0" speed="13.90" length="13.50" shape="99.95,95.82 98.40,98.40 94.34,100.84 88.65,101.65"/>
    </edge>
    <edge id=":n5_29" function="internal">
        <lane id=":n5_29_0" index="0" speed="13.90" length="2.41" shape="100.00,90.30 99.17,89.89 98.35,88.65"/>
    </edge>
    <edge id=":n5_18" function="internal">
        <lane id=":n5_18_0" index="0" speed="13.90" length="5.00" shape="88.65,91.75 90.01,91.56 90.97,90.97 91.56,90.01 91.75,88.65"/>
    </edge>
    <edge id=":n5_19" function="internal">
        <lane id=":n5_19_0" index="0" speed="13.90" length="22.70" shape="88.65,91.75 111.35,91.75"/>
        <lane id=":n5_19_1" index="1" speed="13.90" length="22.70" shape="88.65,95.05 111.35,95.05"/>
        <lane id=":n5_19_2" index="2" speed="13.90" length="22.70" shape="88.65,98.35 111.35,98.35"/>
    </edge>
    <edge id=":n5_22" function="internal">
        <lane id=":n5_22_0" index="0" speed="13.90" length="7.47" shape="88.65,98.35 94.34,99.16 95.82,100.05"/>
    </edge>
    <edge id=":n5_23" function="internal">
        <lane id=":n5_23_0" index="0" speed="13.90" length="2.41" shape="88.65,98.35 89.89,99.18 90.30,100.00"/>
    </edge>
    <edge id=":n5_30" function="internal">
        <lane id=":n5_30_0" index="0" speed="13.90" length="13.50" shape="95.82,100.05 98.40,101.60 100.84,105.66 101.65,111.35"/>
    </edge>
    <edge id=":n5_31" function="internal">
        <lane id=":n5_31_0" index="0" speed="13.90" length="2.41" shape="90.30,100.00 89.89,100.83 88.65,101.65"/>
    </edge>
    <edge id=":n6_0" function="internal">
        <lane id=":n6_0_0" index="0" speed="13.90" length="5.00" shape="191.75,111.35 191.56,109.99 190.97,109.03 190.01,108.44 188.65,108.25"/>
    </edge>
    <edge id=":n6_1" function="internal">
        <lane id=":n6_1_0" index="0" speed="13.90" length="22.70" shape="191.75,111.35 191.75,88.65"/>
        <lane id=":n6_1_1" index="1" speed="13.90" length="22.70" shape="195.05,111.35 195.05,88.65"/>
        <lane id=":n6_1_2" index="2" speed="13.90" length="22.70" shape="198.35,111.35 198.35,88.65"/>
    </edge>
    <edge id=":n6_4" function="internal">
        <lane id=":n6_4_0" index="0" speed="13.90" length="7.47" shape="198.35,111.35 199.16,105.66 200.05,104.18"/>
    </edge>
    <edge id=":n6_5" function="internal">
        <lane id=":n6_5_0" index="0" speed="13.90" length="2.41" shape="198.35,111.35 199.17,110.11 200.00,109.70"/>
    </edge>
    <edge id=":n6_24" function="internal">
        <lane id=":n6_24_0" index="0" speed="13.90" length="13.50" shape="200.05,104.18 201.60,101.60 205.66,99.16 211.35,98.35"/>
    </edge>
    <edge id=":n6_25" function="internal">
        <lane id=":n6_25_0" index="0" speed="13.90" length="2.41" shape="200.00,109.70 200.82,110.11 201.65,111.35"/>
    </edge>
    <edge id=":n6_6" function="internal">
        <lane id=":n6_6_0" index="0" speed="13.90" length="5.00" shape="211.35,108.25 209.99,108.44 209.03,109.03 208.44,109.99 208.25,111.35"/>
    </edge>
    <edge id=":n6_7" function="internal">
        <lane id=":n6_7_0" index="0" speed="13.90" length="22.70" shape="211.35,108.25 188.65,108.25"/>
        <lane id=":n6_7_1" index="1" speed="13.90" length="22.70" shape="211.35,104.95 188.65,104.95"/>
        <lane id=":n6_7_2" index="2" speed="13.90" length="22.70" shape="211.35,101.65 188.65,101.65"/>
    </edge>
    <edge id=":n6_10" function="internal">
        <lane id=":n6_10_0" index="0" speed="13.90" length="7.47" shape="211.35,101.65 205.66,100.84 204.18,99.95"/>
    </edge>
    <edge id=":n6_11" function="internal">
        <lane id=":n6_11_0" index="0" speed="13.90" length="2.41" shape="211.35,101.65 210.11,100.82 209.70,100.00"/>
    </edge>
    <edge id=":n6_26" function="internal">
        <lane id=":n6_26_0" index="0" speed="13.90" length="13.50" shape="204.18,99.95 201.60,98.40 199.16,94.34 198.35,88.65"/>
    </edge>
    <edge id=":n6_27" function="internal">
        <lane id=":n6_27_0" index="0" speed="13.90" length="2.41" shape="209.70,100.00 210.11,99.17 211.35,98.35"/>
    </edge>
    <edge id=":n6_12" function="internal">
        <lane id=":n6_12_0" index="0" speed="13.90" length="5.00" shape="208.25,88.65 208.44,90.01 209.03,90.97 209.99,91.56 211.35,91.75"/>
    </edge>
    <edge id=":n6_13" function="internal">
        <lane id=":n6_13_0" index="0" speed="13.90" length="22.70" shape="208.25,88.65 208.25,111.35"/>
        <lane id=":n6_13_1" index="1" speed="13.90" length="22.70" shape="204.95,88.65 204.95,111.35"/>
        <lane id=":n6_13_2" index="2" speed="13.90" length="22.70" shape="201.65,88.65 201.65,111.35"/>
    </edge>
    <edge id=":n6_16" function="internal">
        <lane id=":n6_16_0" index="0" speed="13.90" length="7.47" shape="201.65,88.65 200.84,94.34 199.95,95.82"/>
    </edge>
    <edge id=":n6_17" function="internal">
        <lane id=":n6_17_0" index="0" speed="13.90" length="2.41" shape="201.65,88.65 200.83,89.89 200.00,90.30"/>
    </edge>
    <edge id=":n6_28" function="internal">
        <lane id=":n6_28_0" index="0" speed="13.90" length="13.50" shape="199.95,95.82 198.40,98.40 194.34,100.84 188.65,101.65"/>
    </edge>
    <edge id=":n6_29" function="internal">
        <lane id=":n6_29_0" index="0" speed="13.90" length="2.41" shape="200.00,90.30 199.18,89.89 198.35,88.65"/>
    </edge>
    <edge id=":n6_18" function="internal">
        <lane id=":n6_18_0" index="0" speed="13.90" length="5.00" shape="188.65,91.75 190.01,91.56 190.97,90.97 191.56,90.01 191.75,88.65"/>
    </edge>
    <edge id=":n6_19" function="internal">
        <lane id=":n6_19_0" index="0" speed="13.90" length="22.70" shape="188.65,91.75 211.35,91.75"/>
        <lane id=":n6_19_1" index="1" speed="13.90" length="22.70" shape="188.65,95.05 211.35,95.05"/>
        <lane id=":n6_19_2" index="2" speed="13.90" length="22.70" shape="188.65,98.35 211.35,98.35"/>
    </edge>
    <edge id=":n6_22" function="internal">
        <lane id=":n6_22_0" index="0" speed="13.90" length="7.47" shape="188.65,98.35 194.34,99.16 195.82,100.05"/>
    </edge>
    <edge id=":n6_23" function="internal">
        <lane id=":n6_23_0" index="0" speed="13.90" length="2.41" shape="188.65,98.35 189.89,99.18 190.30,100.00"/>
    </edge>
    <edge id=":n6_30" function="internal">
        <lane id=":n6_30_0" index="0" speed="13.90" length="13.50" shape="195.82,100.05 198.40,101.60 200.84,105.66 201.65,111.35"/>
    </edge>
    <edge id=":n6_31" function="internal">
        <lane id=":n6_31_0" index="0" speed="13.90" length="2.41" shape="190.30,100.00 189.89,100.83 188.65,101.65"/>
    </edge>
    <edge id=":n7_0" function="internal">
        <lane id=":n7_0_0" index="0" speed="13.90" length="4.82" shape="98.35,0.00 99.18,-1.24 100.00,-1.65 100.83,-1.24 101.65,0.00"/>
    </edge>
    <edge id=":n8_0" function="internal">
        <lane id=":n8_0_0" index="0" speed="13.90" length="4.82" shape="198.35,0.00 199.17,-1.24 200.00,-1.65 200.82,-1.24 201.65,0.00"/>
    </edge>
    <edge id=":n9_0" function="internal">
        <lane id=":n9_0_0" index="0" speed="13.90" length="4.82" shape="0.00,201.65 -1.24,200.83 -1.65,200.00 -1.24,199.18 0.00,198.35"/>
    </edge>

    <edge id="10to5" from="n10" to="n5" priority="-1" type="3L">
        <lane id="10to5_0" index="0" speed="13.90" length="88.65" shape="0.00,91.75 88.65,91.75"/>
        <lane id="10to5_1" index="1" speed="13.90" length="88.65" shape="0.00,95.05 88.65,95.05"/>
        <lane id="10to5_2" index="2" speed="13.90" length="88.65" shape="0.00,98.35 88.65,98.35"/>
    </edge>
    <edge id="11to4" from="n11" to="n4" priority="-1" type="3L">
        <lane id="11to4_0" index="0" speed="13.90" length="88.65" shape="300.00,208.25 211.35,208.25"/>
        <lane id="11to4_1" index="1" speed="13.90" length="88.65" shape="300.00,204.95 211.35,204.95"/>
        <lane id="11to4_2" index="2" speed="13.90" length="88.65" shape="300.00,201.65 211.35,201.65"/>
    </edge>
    <edge id="12to6" from="n6" to="n12" priority="-1" type="3L">
        <lane id="12to6_0" index="0" speed="13.90" length="88.65" shape="211.35,91.75 300.00,91.75"/>
        <lane id="12to6_1" index="1" speed="13.90" length="88.65" shape="211.35,95.05 300.00,95.05"/>
        <lane id="12to6_2" index="2" speed="13.90" length="88.65" shape="211.35,98.35 300.00,98.35"/>
    </edge>
    <edge id="1to3" from="n1" to="n3" priority="-1" type="3L">
        <lane id="1to3_0" index="0" speed="13.90" length="88.65" shape="91.75,300.00 91.75,211.35"/>
        <lane id="1to3_1" index="1" speed="13.90" length="88.65" shape="95.05,300.00 95.05,211.35"/>
        <lane id="1to3_2" index="2" speed="13.90" length="88.65" shape="98.35,300.00 98.35,211.35"/>
    </edge>
    <edge id="2to4" from="n2" to="n4" priority="-1" type="3L">
        <lane id="2to4_0" index="0" speed="13.90" length="88.65" shape="191.75,300.00 191.75,211.35"/>
        <lane id="2to4_1" index="1" speed="13.90" length="88.65" shape="195.05,300.00 195.05,211.35"/>
        <lane id="2to4_2" index="2" speed="13.90" length="88.65" shape="198.35,300.00 198.35,211.35"/>
    </edge>
    <edge id="3to1" from="n3" to="n1" priority="-1" type="3L">
        <lane id="3to1_0" index="0" speed="13.90" length="88.65" shape="108.25,211.35 108.25,300.00"/>
        <lane id="3to1_1" index="1" speed="13.90" length="88.65" shape="104.95,211.35 104.95,300.00"/>
        <lane id="3to1_2" index="2" speed="13.90" length="88.65" shape="101.65,211.35 101.65,300.00"/>
    </edge>
    <edge id="3to4" from="n3" to="n4" priority="-1" type="3L">
        <lane id="3to4_0" index="0" speed="13.90" length="77.30" shape="111.35,191.75 188.65,191.75"/>
        <lane id="3to4_1" index="1" speed="13.90" length="77.30" shape="111.35,195.05 188.65,195.05"/>
        <lane id="3to4_2" index="2" speed="13.90" length="77.30" shape="111.35,198.35 188.65,198.35"/>
    </edge>
    <edge id="3to5" from="n3" to="n5" priority="-1" type="3L">
        <lane id="3to5_0" index="0" speed="13.90" length="77.30" shape="91.75,188.65 91.75,111.35"/>
        <lane id="3to5_1" index="1" speed="13.90" length="77.30" shape="95.05,188.65 95.05,111.35"/>
        <lane id="3to5_2" index="2" speed="13.90" length="77.30" shape="98.35,188.65 98.35,111.35"/>
    </edge>
    <edge id="3to9" from="n3" to="n9" priority="-1" type="3L">
        <lane id="3to9_0" index="0" speed="13.90" length="88.65" shape="88.65,208.25 0.00,208.25"/>
        <lane id="3to9_1" index="1" speed="13.90" length="88.65" shape="88.65,204.95 0.00,204.95"/>
        <lane id="3to9_2" index="2" speed="13.90" length="88.65" shape="88.65,201.65 0.00,201.65"/>
    </edge>
    <edge id="4to11" from="n4" to="n11" priority="-1" type="3L">
        <lane id="4to11_0" index="0" speed="13.90" length="88.65" shape="211.35,191.75 300.00,191.75"/>
        <lane id="4to11_1" index="1" speed="13.90" length="88.65" shape="211.35,195.05 300.00,195.05"/>
        <lane id="4to11_2" index="2" speed="13.90" length="88.65" shape="211.35,198.35 300.00,198.35"/>
    </edge>
    <edge id="4to2" from="n4" to="n2" priority="-1" type="3L">
        <lane id="4to2_0" index="0" speed="13.90" length="88.65" shape="208.25,211.35 208.25,300.00"/>
        <lane id="4to2_1" index="1" speed="13.90" length="88.65" shape="204.95,211.35 204.95,300.00"/>
        <lane id="4to2_2" index="2" speed="13.90" length="88.65" shape="201.65,211.35 201.65,300.00"/>
    </edge>
    <edge id="4to3" from="n4" to="n3" priority="-1" type="3L">
        <lane id="4to3_0" index="0" speed="13.90" length="77.30" shape="188.65,208.25 111.35,208.25"/>
        <lane id="4to3_1" index="1" speed="13.90" length="77.30" shape="188.65,204.95 111.35,204.95"/>
        <lane id="4to3_2" index="2" speed="13.90" length="77.30" shape="188.65,201.65 111.35,201.65"/>
    </edge>
    <edge id="4to6" from="n4" to="n6" priority="-1" type="3L">
        <lane id="4to6_0" index="0" speed="13.90" length="77.30" shape="191.75,188.65 191.75,111.35"/>
        <lane id="4to6_1" index="1" speed="13.90" length="77.30" shape="195.05,188.65 195.05,111.35"/>
        <lane id="4to6_2" index="2" speed="13.90" length="77.30" shape="198.35,188.65 198.35,111.35"/>
    </edge>
    <edge id="5to10" from="n5" to="n10" priority="-1" type="3L">
        <lane id="5to10_0" index="0" speed="13.90" length="88.65" shape="88.65,108.25 0.00,108.25"/>
        <lane id="5to10_1" index="1" speed="13.90" length="88.65" shape="88.65,104.95 0.00,104.95"/>
        <lane id="5to10_2" index="2" speed="13.90" length="88.65" shape="88.65,101.65 0.00,101.65"/>
    </edge>
    <edge id="5to3" from="n5" to="n3" priority="-1" type="3L">
        <lane id="5to3_0" index="0" speed="13.90" length="77.30" shape="108.25,111.35 108.25,188.65"/>
        <lane id="5to3_1" index="1" speed="13.90" length="77.30" shape="104.95,111.35 104.95,188.65"/>
        <lane id="5to3_2" index="2" speed="13.90" length="77.30" shape="101.65,111.35 101.65,188.65"/>
    </edge>
    <edge id="5to6" from="n5" to="n6" priority="-1" type="3L">
        <lane id="5to6_0" index="0" speed="13.90" length="77.30" shape="111.35,91.75 188.65,91.75"/>
        <lane id="5to6_1" index="1" speed="13.90" length="77.30" shape="111.35,95.05 188.65,95.05"/>
        <lane id="5to6_2" index="2" speed="13.90" length="77.30" shape="111.35,98.35 188.65,98.35"/>
    </edge>
    <edge id="5to7" from="n5" to="n7" priority="-1" type="3L">
        <lane id="5to7_0" index="0" speed="13.90" length="88.65" shape="91.75,88.65 91.75,0.00"/>
        <lane id="5to7_1" index="1" speed="13.90" length="88.65" shape="95.05,88.65 95.05,0.00"/>
        <lane id="5to7_2" index="2" speed="13.90" length="88.65" shape="98.35,88.65 98.35,0.00"/>
    </edge>
    <edge id="6to12" from="n12" to="n6" priority="-1" type="3L">
        <lane id="6to12_0" index="0" speed="13.90" length="88.65" shape="300.00,108.25 211.35,108.25"/>
        <lane id="6to12_1" index="1" speed="13.90" length="88.65" shape="300.00,104.95 211.35,104.95"/>
        <lane id="6to12_2" index="2" speed="13.90" length="88.65" shape="300.00,101.65 211.35,101.65"/>
    </edge>
    <edge id="6to4" from="n6" to="n4" priority="-1" type="3L">
        <lane id="6to4_0" index="0" speed="13.90" length="77.30" shape="208.25,111.35 208.25,188.65"/>
        <lane id="6to4_1" index="1" speed="13.90" length="77.30" shape="204.95,111.35 204.95,188.65"/>
        <lane id="6to4_2" index="2" speed="13.90" length="77.30" shape="201.65,111.35 201.65,188.65"/>
    </edge>
    <edge id="6to5" from="n6" to="n5" priority="-1" type="3L">