<nodes>
	<node id="n1" x = "100" y="300" /> 
	<node id="n2" x = "200" y="300" /> 
	<node id="n3" x = "100" y="200" type="traffic_light"/>
	<node id="n4" x = "200" y="200" type="traffic_light"/>
	<node id="n5" x = "100" y="100" type="traffic_light"/>
	<node id="n6" x = "200" y="100" type="traffic_light"/>
	<node id="n7" x = "100" y="0" />
	<node id="n8" x = "200" y="0" />
	<node id="n9" x = "0" y="200" />
	<node id="n10" x ="0" y="100"/>
	<node id="n11" x ="300" y="200" /> 
	<node id="n12" x ="300" y="100" /> 
</nodes>
