 <routes> 

	 <vType accel="1.0" decel="5.0" id="Car" length="5.0" maxSpeed="20.0"  /> 
	 <vType accel="1.0" decel="5.0" id="Bus" length="12.0" maxSpeed="10.0"  /> 
	
	 <route id="route0" edges="1to3 3to5 5to7"/> 
	 <route id="route1" edges="2to4 4to3 3to9"/> 
	 <route id="route2" edges="1to3 3to9"/> 


	 <vehicle depart="5" id="veh2" route="route1" type="Car" /> 
	 <vehicle depart="10" id="veh0" route="route0" type="Bus" /> 
	 <vehicle depart="15" id="veh1" route="route0" type="Bus" /> 
	 <vehicle depart="30" id="veh3" route="route2" type="Car" /> 
	
	
 
 </routes>