
<types> 

	<type id="3L" numLanes="3"/> 
</types>